Circuit: * D:\Users\gizmo\Desktop\Wave_Shaper\spice\SAW_TRI_A2_04.asc

Limiting fall time of source v1 to 1.95156e-019
Direct Newton iteration for .op point succeeded.
.step vref=7
.step vref=7.2
.step vref=7.4
.step vref=7.6
.step vref=7.8
.step vref=8
.step vref=8.2
.step vref=8.4
.step vref=8.6
.step vref=8.8
.step vref=9

Date: Wed Jun 19 21:44:46 2019
Total elapsed time: 0.319 seconds.

tnom = 27
temp = 27
method = modified trap
totiter = 2548
traniter = 2541
tranpoints = 1168
accept = 1127
rejected = 41
matrix size = 10
fillins = 0
solver = Normal
Matrix Compiler1: 390 bytes object code size  0.1/0.1/[0.1]
Matrix Compiler2: off  [0.1]/0.1/0.1


