Circuit: * D:\Users\gizmo\Documents\Develop\Analog_VCO\spice\Hysteresis_Comparator.asc

Direct Newton iteration failed to find .op point.  (Use ".option noopiter" to skip.)
Starting Gmin stepping
Gmin = 10
Gmin = 1.07374
Gmin = 0.115292
Gmin = 0.0123794
Gmin = 0.00132923
Gmin = 0.000142725
Gmin = 1.5325e-005
vernier = 0.5
vernier = 0.25
vernier = 0.125
vernier = 0.0625
vernier = 0.03125
vernier = 0.015625
Gmin = 7.84638e-006
vernier = 0.0078125
vernier = 0.00390625
vernier = 0.00195313
vernier = 0.000976563
vernier = 0.000488281
Gmin = 0
Gmin stepping failed

Starting source stepping with srcstepmethod=0
Source Step = 3.0303%
vernier = 0.25
Source Step = 0.0177557%
Starting source stepping with srcstepmethod=1
Source Step = 3.0303%
vernier = 0.25
Source stepping failed

Pseudo Transient succeeded in finding the operating point.

Date: Tue May 21 15:32:38 2019
Total elapsed time: 0.322 seconds.

tnom = 27
temp = 27
method = modified trap
totiter = 11162
traniter = 3394
tranpoints = 1461
accept = 1343
rejected = 147
matrix size = 9
fillins = 1
solver = Normal
Matrix Compiler1: 404 bytes object code size  0.1/0.1/[0.1]
Matrix Compiler2: 777 bytes object code size  0.1/0.2/[0.1]


