Circuit: * D:\Users\gizmo\Documents\Develop\Analog_VCO\spice\Integrator_Q1_On.asc

Direct Newton iteration for .op point succeeded.

Date: Tue May 21 15:46:40 2019
Total elapsed time: 0.080 seconds.

tnom = 27
temp = 27
method = modified trap
totiter = 2150
traniter = 2147
tranpoints = 1063
accept = 1057
rejected = 6
matrix size = 10
fillins = 0
solver = Normal
Matrix Compiler1: 400 bytes object code size  0.1/0.1/[0.1]
Matrix Compiler2: 876 bytes object code size  0.1/0.1/[0.1]


