Circuit: * D:\Users\gizmo\Documents\Develop\Analog_VCO\spice\Integrator_Q1_Off.asc

Direct Newton iteration for .op point succeeded.

Date: Tue May 21 15:41:45 2019
Total elapsed time: 0.090 seconds.

tnom = 27
temp = 27
method = modified trap
totiter = 2138
traniter = 2135
tranpoints = 1058
accept = 1054
rejected = 4
matrix size = 10
fillins = 0
solver = Normal
Matrix Compiler1:      24 opcodes  0.1/[0.0]/0.1
Matrix Compiler2: off  [0.1]/0.2/0.1


