Circuit: * D:\Users\gizmo\Documents\Develop\Analog_VCO\spice\VCO_VCO_Test.asc

Direct Newton iteration for .op point succeeded.

Date: Tue May 21 17:52:40 2019
Total elapsed time: 0.217 seconds.

tnom = 27
temp = 27
method = modified trap
totiter = 9137
traniter = 9125
tranpoints = 3235
accept = 2560
rejected = 675
matrix size = 18
fillins = 13
solver = Normal
Matrix Compiler1:      79 opcodes  0.4/[0.2]/0.2
Matrix Compiler2: off  [0.2]/0.3/0.2


