Questionable use of curly braces in ".model sir870adp vdmos(rg=3 vto=2.9 rd=3.2m rs=1.5m rb={m} kp=100 mtriode=1.85 cgdmax=1.4n cgdmin=70p cgs=2.9n cjo=3.6n m=.4 a=.7 vj=.7 lambda=20m is=3p ksubthres=.08 mfg=siliconix vds=100 ron=5.5m qg=53.5n)"
    Error: undefined symbol in: "[m]"
Circuit: * D:\Users\gizmo\Documents\Develop\Analog_VCO\spice\VCO_VCO_NoLimit_FET.asc

Direct Newton iteration for .op point succeeded.

Date: Tue May 21 13:03:25 2019
Total elapsed time: 0.203 seconds.

tnom = 27
temp = 27
method = modified trap
totiter = 6415
traniter = 6411
tranpoints = 2512
accept = 2044
rejected = 468
matrix size = 16
fillins = 4
solver = Normal
Matrix Compiler1: 946 bytes object code size  0.3/0.1/[0.1]
Matrix Compiler2: 1.65 KB object code size  0.2/0.2/[0.2]


