Circuit: * D:\Users\gizmo\Documents\Develop\Analog_VCO\spice\VCO_VCO.asc

Direct Newton iteration failed to find .op point.  (Use ".option noopiter" to skip.)
Starting Gmin stepping
Gmin = 10
Gmin = 1.07374
Gmin = 0.115292
Gmin = 0.0123794
Gmin = 0.00132923
Gmin = 0.000142725
Gmin = 1.5325e-005
Gmin = 1.6455e-006
Gmin = 1.76685e-007
Gmin = 1.89714e-008
Gmin = 2.03704e-009
Gmin = 2.18725e-010
Gmin = 2.34854e-011
Gmin = 2.52173e-012
Gmin = 2.70769e-013
Gmin = 0
Gmin stepping succeeded in finding the operating point.

.step cv=1
.step cv=2
.step cv=4
.step cv=5

Date: Tue May 21 13:02:20 2019
Total elapsed time: 0.557 seconds.

tnom = 27
temp = 27
method = modified trap
totiter = 19309
traniter = 18960
tranpoints = 6353
accept = 4666
rejected = 1687
matrix size = 22
fillins = 7
solver = Normal
Matrix Compiler1:      80 opcodes  0.5/[0.2]/0.3
Matrix Compiler2: off  [0.2]/0.4/0.4


