Circuit: * D:\Users\gizmo\Desktop\VCO_Sawtooth\spice\VCO_Sawtooth_JFET_CurrentSource_BufferedVref.asc

Direct Newton iteration failed to find .op point.  (Use ".option noopiter" to skip.)
Starting Gmin stepping
Gmin = 10
Gmin = 1.07374
Gmin = 0.115292
Gmin = 0.0123794
Gmin = 0.00132923
Gmin = 0.000142725
Gmin = 1.5325e-005
Gmin = 1.6455e-006
Gmin = 1.76685e-007
Gmin = 1.89714e-008
Gmin = 2.03704e-009
Gmin = 2.18725e-010
Gmin = 2.34854e-011
Gmin = 2.52173e-012
Gmin = 2.70769e-013
Gmin = 0
Gmin stepping succeeded in finding the operating point.

.step rs=1000
.step rs=5000
.step rs=10000

Date: Mon Jun 03 16:15:31 2019
Total elapsed time: 16.447 seconds.

tnom = 27
temp = 27
method = modified trap
totiter = 271165
traniter = 270815
tranpoints = 78783
accept = 55939
rejected = 22844
matrix size = 19
fillins = 7
solver = Normal
Matrix Compiler1: 1.44 KB object code size  0.4/0.2/[0.2]
Matrix Compiler2: 2.22 KB object code size  0.3/0.3/[0.2]


