Circuit: * D:\Users\gizmo\Documents\Develop\Analog_VCO\VCO_Sawtooth\spice\VCO_Sawtooth_2.asc

Direct Newton iteration failed to find .op point.  (Use ".option noopiter" to skip.)
Starting Gmin stepping
Gmin = 10
Gmin = 1.07374
Gmin = 0.115292
Gmin = 0.0123794
Gmin = 0.00132923
Gmin = 0.000142725
Gmin = 1.5325e-005
Gmin = 1.6455e-006
Gmin = 1.76685e-007
Gmin = 1.89714e-008
Gmin = 2.03704e-009
Gmin = 2.18725e-010
Gmin = 2.34854e-011
Gmin = 2.52173e-012
Gmin = 2.70769e-013
Gmin = 0
Gmin stepping succeeded in finding the operating point.


Date: Thu Jun 06 20:58:41 2019
Total elapsed time: 0.755 seconds.

tnom = 27
temp = 27
method = modified trap
totiter = 164540
traniter = 164191
tranpoints = 51667
accept = 38090
rejected = 13577
matrix size = 17
fillins = 5
solver = Normal
Matrix Compiler1:      70 opcodes  0.4/[0.1]/0.2
Matrix Compiler2: 1.90 KB object code size  0.3/0.3/[0.2]


