Circuit: * D:\Users\gizmo\Documents\Develop\Analog_VCO\VCO_Sawtooth\spice\VCO_Sawtooth.asc

Direct Newton iteration failed to find .op point.  (Use ".option noopiter" to skip.)
Starting Gmin stepping
Gmin = 10
Gmin = 1.07374
Gmin = 0.115292
Gmin = 0.0123794
Gmin = 0.00132923
Gmin = 0.000142725
Gmin = 1.5325e-005
Gmin = 1.6455e-006
Gmin = 1.76685e-007
Gmin = 1.89714e-008
Gmin = 2.03704e-009
Gmin = 2.18725e-010
Gmin = 2.34854e-011
Gmin = 2.52173e-012
Gmin = 2.70769e-013
Gmin = 0
Gmin stepping succeeded in finding the operating point.


Date: Thu Jun 06 20:50:50 2019
Total elapsed time: 0.857 seconds.

tnom = 27
temp = 27
method = modified trap
totiter = 158351
traniter = 158001
tranpoints = 46957
accept = 33745
rejected = 13212
matrix size = 17
fillins = 7
solver = Normal
Matrix Compiler1: 1.18 KB object code size  0.4/0.2/[0.1]
Matrix Compiler2: 1.83 KB object code size  0.2/0.2/[0.2]


